<?xml version="1.0" encoding="UTF-8"?>

<!-- generated on 2024-02-26 11:08:16 by Eclipse SUMO netedit Version 1.17.0
<configuration xmlns:xsi="http://www.w3.org/2001/XMLSchema-instance" xsi:noNamespaceSchemaLocation="http://sumo.dlr.de/xsd/netconvertConfiguration.xsd">

    <input>
        <sumo-net-file value="C:\Users\PCX\Desktop\EPN\EPN PROYECTO SUMO\Dynamic-Traffic-light-management-system-main\maps\cruz.net.xml"/>
    </input>

    <output>
        <output-file value="C:\Users\PCX\Desktop\EPN\EPN PROYECTO SUMO\Dynamic-Traffic-light-management-system-main\maps\cruz.net.xml"/>
    </output>

    <processing>
        <offset.disable-normalization value="true"/>
    </processing>

    <junctions>
        <no-turnarounds value="true"/>
    </junctions>

    <netedit>
        <new-network value="false"/>
    </netedit>

</configuration>
-->

<net version="1.16" junctionCornerDetail="5" limitTurnSpeed="5.50" xmlns:xsi="http://www.w3.org/2001/XMLSchema-instance" xsi:noNamespaceSchemaLocation="http://sumo.dlr.de/xsd/net_file.xsd">

    <location netOffset="0.00,0.00" convBoundary="-100.00,-100.00,300.00,300.00" origBoundary="10000000000.00,10000000000.00,-10000000000.00,-10000000000.00" projParameter="!"/>

    <edge id=":J1_0" function="internal">
        <lane id=":J1_0_0" index="0" speed="13.89" length="0.10" shape="0.00,101.60 0.00,101.60"/>
    </edge>
    <edge id=":J1_1" function="internal">
        <lane id=":J1_1_0" index="0" speed="13.89" length="0.10" shape="0.00,98.40 0.00,98.40"/>
    </edge>
    <edge id=":J2_0" function="internal">
        <lane id=":J2_0_0" index="0" speed="6.51" length="9.03" shape="98.40,107.20 98.05,104.75 97.00,103.00 95.25,101.95 92.80,101.60"/>
    </edge>
    <edge id=":J2_1" function="internal">
        <lane id=":J2_1_0" index="0" speed="13.89" length="14.40" shape="98.40,107.20 98.40,92.80"/>
    </edge>
    <edge id=":J2_2" function="internal">
        <lane id=":J2_2_0" index="0" speed="8.00" length="4.07" shape="98.40,107.20 98.95,103.35 99.04,103.20"/>
    </edge>
    <edge id=":J2_12" function="internal">
        <lane id=":J2_12_0" index="0" speed="8.00" length="10.13" shape="99.04,103.20 100.60,100.60 103.35,98.95 107.20,98.40"/>
    </edge>
    <edge id=":J2_3" function="internal">
        <lane id=":J2_3_0" index="0" speed="6.51" length="9.03" shape="107.20,101.60 104.75,101.95 103.00,103.00 101.95,104.75 101.60,107.20"/>
    </edge>
    <edge id=":J2_4" function="internal">
        <lane id=":J2_4_0" index="0" speed="13.89" length="14.40" shape="107.20,101.60 92.80,101.60"/>
    </edge>
    <edge id=":J2_5" function="internal">
        <lane id=":J2_5_0" index="0" speed="8.00" length="4.07" shape="107.20,101.60 103.35,101.05 103.20,100.96"/>
    </edge>
    <edge id=":J2_13" function="internal">
        <lane id=":J2_13_0" index="0" speed="8.00" length="10.13" shape="103.20,100.96 100.60,99.40 98.95,96.65 98.40,92.80"/>
    </edge>
    <edge id=":J2_6" function="internal">
        <lane id=":J2_6_0" index="0" speed="6.51" length="9.03" shape="101.60,92.80 101.95,95.25 103.00,97.00 104.75,98.05 107.20,98.40"/>
    </edge>
    <edge id=":J2_7" function="internal">
        <lane id=":J2_7_0" index="0" speed="13.89" length="14.40" shape="101.60,92.80 101.60,107.20"/>
    </edge>
    <edge id=":J2_8" function="internal">
        <lane id=":J2_8_0" index="0" speed="8.00" length="4.07" shape="101.60,92.80 101.05,96.65 100.96,96.80"/>
    </edge>
    <edge id=":J2_14" function="internal">
        <lane id=":J2_14_0" index="0" speed="8.00" length="10.13" shape="100.96,96.80 99.40,99.40 96.65,101.05 92.80,101.60"/>
    </edge>
    <edge id=":J2_9" function="internal">
        <lane id=":J2_9_0" index="0" speed="6.51" length="9.03" shape="92.80,98.40 95.25,98.05 97.00,97.00 98.05,95.25 98.40,92.80"/>
    </edge>
    <edge id=":J2_10" function="internal">
        <lane id=":J2_10_0" index="0" speed="13.89" length="14.40" shape="92.80,98.40 107.20,98.40"/>
    </edge>
    <edge id=":J2_11" function="internal">
        <lane id=":J2_11_0" index="0" speed="8.00" length="4.07" shape="92.80,98.40 96.65,98.95 96.80,99.04"/>
    </edge>
    <edge id=":J2_15" function="internal">
        <lane id=":J2_15_0" index="0" speed="8.00" length="10.13" shape="96.80,99.04 99.40,100.60 101.05,103.35 101.60,107.20"/>
    </edge>
    <edge id=":J3_0" function="internal">
        <lane id=":J3_0_0" index="0" speed="13.89" length="0.10" shape="200.00,101.60 200.00,101.60"/>
    </edge>
    <edge id=":J3_1" function="internal">
        <lane id=":J3_1_0" index="0" speed="13.89" length="0.10" shape="200.00,98.40 200.00,98.40"/>
    </edge>
    <edge id=":J6_0" function="internal">
        <lane id=":J6_0_0" index="0" speed="13.89" length="0.10" shape="98.40,200.00 98.40,200.00"/>
    </edge>
    <edge id=":J6_1" function="internal">
        <lane id=":J6_1_0" index="0" speed="13.89" length="0.10" shape="101.60,200.00 101.60,200.00"/>
    </edge>
    <edge id=":J7_0" function="internal">
        <lane id=":J7_0_0" index="0" speed="13.89" length="0.10" shape="98.40,0.00 98.40,0.00"/>
    </edge>
    <edge id=":J7_1" function="internal">
        <lane id=":J7_1_0" index="0" speed="13.89" length="0.10" shape="101.60,0.00 101.60,0.00"/>
    </edge>

    <edge id="-E0" from="J1" to="J0" priority="-1">
        <lane id="-E0_0" index="0" speed="13.89" length="100.00" shape="0.00,101.60 -100.00,101.60"/>
    </edge>
    <edge id="-E1" from="J2" to="J1" priority="-1">
        <lane id="-E1_0" index="0" speed="13.89" length="92.80" shape="92.80,101.60 0.00,101.60"/>
    </edge>
    <edge id="-E2" from="J3" to="J2" priority="-1">
        <lane id="-E2_0" index="0" speed="13.89" length="92.80" shape="200.00,101.60 107.20,101.60"/>
    </edge>
    <edge id="-E3" from="J4" to="J3" priority="-1">
        <lane id="-E3_0" index="0" speed="13.89" length="100.00" shape="300.00,101.60 200.00,101.60"/>
    </edge>
    <edge id="-E4" from="J6" to="J5" priority="-1">
        <lane id="-E4_0" index="0" speed="13.89" length="100.00" shape="101.60,200.00 101.60,300.00"/>
    </edge>
    <edge id="-E5" from="J2" to="J6" priority="-1">
        <lane id="-E5_0" index="0" speed="13.89" length="92.80" shape="101.60,107.20 101.60,200.00"/>
    </edge>
    <edge id="-E6" from="J7" to="J2" priority="-1">
        <lane id="-E6_0" index="0" speed="13.89" length="92.80" shape="101.60,0.00 101.60,92.80"/>
    </edge>
    <edge id="-E7" from="J8" to="J7" priority="-1">
        <lane id="-E7_0" index="0" speed="13.89" length="100.00" shape="101.60,-100.00 101.60,0.00"/>
    </edge>
    <edge id="E0" from="J0" to="J1" priority="-1">
        <lane id="E0_0" index="0" speed="13.89" length="100.00" shape="-100.00,98.40 0.00,98.40"/>
    </edge>
    <edge id="E1" from="J1" to="J2" priority="-1">
        <lane id="E1_0" index="0" speed="13.89" length="92.80" shape="0.00,98.40 92.80,98.40"/>
    </edge>
    <edge id="E2" from="J2" to="J3" priority="-1">
        <lane id="E2_0" index="0" speed="13.89" length="92.80" shape="107.20,98.40 200.00,98.40"/>
    </edge>
    <edge id="E3" from="J3" to="J4" priority="-1">
        <lane id="E3_0" index="0" speed="13.89" length="100.00" shape="200.00,98.40 300.00,98.40"/>
    </edge>
    <edge id="E4" from="J5" to="J6" priority="-1">
        <lane id="E4_0" index="0" speed="13.89" length="100.00" shape="98.40,300.00 98.40,200.00"/>
    </edge>
    <edge id="E5" from="J6" to="J2" priority="-1">
        <lane id="E5_0" index="0" speed="13.89" length="92.80" shape="98.40,200.00 98.40,107.20"/>
    </edge>
    <edge id="E6" from="J2" to="J7" priority="-1">
        <lane id="E6_0" index="0" speed="13.89" length="92.80" shape="98.40,92.80 98.40,0.00"/>
    </edge>
    <edge id="E7" from="J7" to="J8" priority="-1">
        <lane id="E7_0" index="0" speed="13.89" length="100.00" shape="98.40,0.00 98.40,-100.00"/>
    </edge>

    <tlLogic id="J2" type="static" programID="0" offset="0">
        <phase duration="42" state="GGgrrrGGgrrr"/>
        <phase duration="3"  state="yyyrrryyyrrr"/>
        <phase duration="42" state="rrrGGgrrrGGg"/>
        <phase duration="3"  state="rrryyyrrryyy"/>
    </tlLogic>

    <junction id="J0" type="dead_end" x="-100.00" y="100.00" incLanes="-E0_0" intLanes="" shape="-100.00,100.00 -100.00,103.20 -100.00,100.00"/>
    <junction id="J1" type="priority" x="0.00" y="100.00" incLanes="-E1_0 E0_0" intLanes=":J1_0_0 :J1_1_0" shape="0.00,103.20 0.00,96.80 0.00,103.20">
        <request index="0" response="00" foes="00" cont="0"/>
        <request index="1" response="00" foes="00" cont="0"/>
    </junction>
    <junction id="J2" type="traffic_light" x="100.00" y="100.00" incLanes="E5_0 -E2_0 -E6_0 E1_0" intLanes=":J2_0_0 :J2_1_0 :J2_12_0 :J2_3_0 :J2_4_0 :J2_13_0 :J2_6_0 :J2_7_0 :J2_14_0 :J2_9_0 :J2_10_0 :J2_15_0" shape="96.80,107.20 103.20,107.20 103.64,104.98 104.20,104.20 104.98,103.64 105.98,103.31 107.20,103.20 107.20,96.80 104.98,96.36 104.20,95.80 103.64,95.02 103.31,94.02 103.20,92.80 96.80,92.80 96.36,95.02 95.80,95.80 95.02,96.36 94.02,96.69 92.80,96.80 92.80,103.20 95.02,103.64 95.80,104.20 96.36,104.98 96.69,105.98">
        <request index="0"  response="000000000000" foes="000100010000" cont="0"/>
        <request index="1"  response="100000100000" foes="111100110000" cont="0"/>
        <request index="2"  response="100011100000" foes="110111110000" cont="1"/>
        <request index="3"  response="000010000000" foes="100010000000" cont="0"/>
        <request index="4"  response="000110000111" foes="100110000111" cont="0"/>
        <request index="5"  response="111110000110" foes="111110000110" cont="1"/>
        <request index="6"  response="000000000000" foes="010000000100" cont="0"/>
        <request index="7"  response="100000100000" foes="110000111100" cont="0"/>
        <request index="8"  response="100000100111" foes="110000110111" cont="1"/>
        <request index="9"  response="000000000010" foes="000000100010" cont="0"/>
        <request index="10" response="000111000110" foes="000111100110" cont="0"/>
        <request index="11" response="000110011110" foes="000110111110" cont="1"/>
    </junction>
    <junction id="J3" type="priority" x="200.00" y="100.00" incLanes="-E3_0 E2_0" intLanes=":J3_0_0 :J3_1_0" shape="200.00,103.20 200.00,96.80 200.00,103.20">
        <request index="0" response="00" foes="00" cont="0"/>
        <request index="1" response="00" foes="00" cont="0"/>
    </junction>
    <junction id="J4" type="dead_end" x="300.00" y="100.00" incLanes="E3_0" intLanes="" shape="300.00,100.00 300.00,96.80 300.00,100.00"/>
    <junction id="J5" type="dead_end" x="100.00" y="300.00" incLanes="-E4_0" intLanes="" shape="100.00,300.00 103.20,300.00 100.00,300.00"/>
    <junction id="J6" type="priority" x="100.00" y="200.00" incLanes="E4_0 -E5_0" intLanes=":J6_0_0 :J6_1_0" shape="96.80,200.00 103.20,200.00 96.80,200.00">
        <request index="0" response="00" foes="00" cont="0"/>
        <request index="1" response="00" foes="00" cont="0"/>
    </junction>
    <junction id="J7" type="priority" x="100.00" y="0.00" incLanes="E6_0 -E7_0" intLanes=":J7_0_0 :J7_1_0" shape="96.80,0.00 103.20,0.00 96.80,0.00">
        <request index="0" response="00" foes="00" cont="0"/>
        <request index="1" response="00" foes="00" cont="0"/>
    </junction>
    <junction id="J8" type="dead_end" x="100.00" y="-100.00" incLanes="E7_0" intLanes="" shape="100.00,-100.00 96.80,-100.00 100.00,-100.00"/>

    <junction id=":J2_12_0" type="internal" x="99.04" y="103.20" incLanes=":J2_2_0 -E6_0" intLanes=":J2_4_0 :J2_5_0 :J2_6_0 :J2_7_0 :J2_10_0 :J2_11_0"/>
    <junction id=":J2_13_0" type="internal" x="103.20" y="100.96" incLanes=":J2_5_0 E1_0" intLanes=":J2_1_0 :J2_2_0 :J2_7_0 :J2_8_0 :J2_9_0 :J2_10_0"/>
    <junction id=":J2_14_0" type="internal" x="100.96" y="96.80" incLanes=":J2_8_0 E5_0" intLanes=":J2_0_0 :J2_1_0 :J2_4_0 :J2_5_0 :J2_10_0 :J2_11_0"/>
    <junction id=":J2_15_0" type="internal" x="96.80" y="99.04" incLanes=":J2_11_0 -E2_0" intLanes=":J2_1_0 :J2_2_0 :J2_3_0 :J2_4_0 :J2_7_0 :J2_8_0"/>

    <connection from="-E1" to="-E0" fromLane="0" toLane="0" via=":J1_0_0" dir="s" state="M"/>
    <connection from="-E2" to="-E5" fromLane="0" toLane="0" via=":J2_3_0" tl="J2" linkIndex="3" dir="r" state="o"/>
    <connection from="-E2" to="-E1" fromLane="0" toLane="0" via=":J2_4_0" tl="J2" linkIndex="4" dir="s" state="o"/>
    <connection from="-E2" to="E6" fromLane="0" toLane="0" via=":J2_5_0" tl="J2" linkIndex="5" dir="l" state="o"/>
    <connection from="-E3" to="-E2" fromLane="0" toLane="0" via=":J3_0_0" dir="s" state="M"/>
    <connection from="-E5" to="-E4" fromLane="0" toLane="0" via=":J6_1_0" dir="s" state="M"/>
    <connection from="-E6" to="E2" fromLane="0" toLane="0" via=":J2_6_0" tl="J2" linkIndex="6" dir="r" state="O"/>
    <connection from="-E6" to="-E5" fromLane="0" toLane="0" via=":J2_7_0" tl="J2" linkIndex="7" dir="s" state="O"/>
    <connection from="-E6" to="-E1" fromLane="0" toLane="0" via=":J2_8_0" tl="J2" linkIndex="8" dir="l" state="o"/>
    <connection from="-E7" to="-E6" fromLane="0" toLane="0" via=":J7_1_0" dir="s" state="M"/>
    <connection from="E0" to="E1" fromLane="0" toLane="0" via=":J1_1_0" dir="s" state="M"/>
    <connection from="E1" to="E6" fromLane="0" toLane="0" via=":J2_9_0" tl="J2" linkIndex="9" dir="r" state="o"/>
    <connection from="E1" to="E2" fromLane="0" toLane="0" via=":J2_10_0" tl="J2" linkIndex="10" dir="s" state="o"/>
    <connection from="E1" to="-E5" fromLane="0" toLane="0" via=":J2_11_0" tl="J2" linkIndex="11" dir="l" state="o"/>
    <connection from="E2" to="E3" fromLane="0" toLane="0" via=":J3_1_0" dir="s" state="M"/>
    <connection from="E4" to="E5" fromLane="0" toLane="0" via=":J6_0_0" dir="s" state="M"/>
    <connection from="E5" to="-E1" fromLane="0" toLane="0" via=":J2_0_0" tl="J2" linkIndex="0" dir="r" state="O"/>
    <connection from="E5" to="E6" fromLane="0" toLane="0" via=":J2_1_0" tl="J2" linkIndex="1" dir="s" state="O"/>
    <connection from="E5" to="E2" fromLane="0" toLane="0" via=":J2_2_0" tl="J2" linkIndex="2" dir="l" state="o"/>
    <connection from="E6" to="E7" fromLane="0" toLane="0" via=":J7_0_0" dir="s" state="M"/>

    <connection from=":J1_0" to="-E0" fromLane="0" toLane="0" dir="s" state="M"/>
    <connection from=":J1_1" to="E1" fromLane="0" toLane="0" dir="s" state="M"/>
    <connection from=":J2_0" to="-E1" fromLane="0" toLane="0" dir="r" state="M"/>
    <connection from=":J2_1" to="E6" fromLane="0" toLane="0" dir="s" state="M"/>
    <connection from=":J2_2" to="E2" fromLane="0" toLane="0" via=":J2_12_0" dir="l" state="m"/>
    <connection from=":J2_12" to="E2" fromLane="0" toLane="0" dir="l" state="M"/>
    <connection from=":J2_3" to="-E5" fromLane="0" toLane="0" dir="r" state="M"/>
    <connection from=":J2_4" to="-E1" fromLane="0" toLane="0" dir="s" state="M"/>
    <connection from=":J2_5" to="E6" fromLane="0" toLane="0" via=":J2_13_0" dir="l" state="m"/>
    <connection from=":J2_13" to="E6" fromLane="0" toLane="0" dir="l" state="M"/>
    <connection from=":J2_6" to="E2" fromLane="0" toLane="0" dir="r" state="M"/>
    <connection from=":J2_7" to="-E5" fromLane="0" toLane="0" dir="s" state="M"/>
    <connection from=":J2_8" to="-E1" fromLane="0" toLane="0" via=":J2_14_0" dir="l" state="m"/>
    <connection from=":J2_14" to="-E1" fromLane="0" toLane="0" dir="l" state="M"/>
    <connection from=":J2_9" to="E6" fromLane="0" toLane="0" dir="r" state="M"/>
    <connection from=":J2_10" to="E2" fromLane="0" toLane="0" dir="s" state="M"/>
    <connection from=":J2_11" to="-E5" fromLane="0" toLane="0" via=":J2_15_0" dir="l" state="m"/>
    <connection from=":J2_15" to="-E5" fromLane="0" toLane="0" dir="l" state="M"/>
    <connection from=":J3_0" to="-E2" fromLane="0" toLane="0" dir="s" state="M"/>
    <connection from=":J3_1" to="E3" fromLane="0" toLane="0" dir="s" state="M"/>
    <connection from=":J6_0" to="E5" fromLane="0" toLane="0" dir="s" state="M"/>
    <connection from=":J6_1" to="-E4" fromLane="0" toLane="0" dir="s" state="M"/>
    <connection from=":J7_0" to="E7" fromLane="0" toLane="0" dir="s" state="M"/>
    <connection from=":J7_1" to="-E6" fromLane="0" toLane="0" dir="s" state="M"/>

</net>
