<?xml version="1.0" encoding="UTF-8"?>

<!-- generated on 2024-03-10 23:50:38.780563 by randomTrips.py v1_19_0+1213-edb5da6ce7a
<configuration>
    <net-file value="Desktop/epn/mapa.net.xml"/>
    <route-file value="Desktop/epn/mapa.rou.xml"/>
    <verbose value="True"/>
    <period value="36.0"/>
</configuration>
-->

<!-- generated on 2024-03-10 23:50:38 by Eclipse SUMO duarouter Version v1_19_0+1213-edb5da6ce7a
<configuration xmlns:xsi="http://www.w3.org/2001/XMLSchema-instance" xsi:noNamespaceSchemaLocation="http://sumo.dlr.de/xsd/duarouterConfiguration.xsd">

    <input>
        <net-file value="Desktop/epn/mapa.net.xml"/>
        <route-files value="trips.trips.xml"/>
    </input>

    <output>
        <output-file value="Desktop/epn/mapa.rou.xml"/>
        <alternatives-output value="NUL"/>
    </output>

    <time>
        <begin value="0.0"/>
        <end value="3600.0"/>
    </time>

    <report>
        <verbose value="true"/>
        <ignore-errors value="true"/>
        <no-step-log value="true"/>
    </report>

</configuration>
-->

<routes xmlns:xsi="http://www.w3.org/2001/XMLSchema-instance" xsi:noNamespaceSchemaLocation="http://sumo.dlr.de/xsd/routes_file.xsd">
    <vehicle id="2" depart="72.00">
        <route edges="432815432#1 24392977 533130559#1 533131559 533131554#0 533131554#1 24392968#1 24380151#0 24380151#1 24380151#2 431722537#0 431722537#1 431722537#2 594768476#7 594768476#8 594768476#9 594768476#10 421470472#0 421470472#1 421470472#2 24392956#7 420559876 -24392954#0 24399817 24399820#0 24362225#0 24362225#1 24362225#2 24362225#3 24362225#4 24362225#5 427683988#4 427683988#5"/>
    </vehicle>
    <vehicle id="3" depart="108.00">
        <route edges="538922917#0 538922917#1 531653929#0 531653929#1 531653929#2 531653929#3 531653929#4 301742233#0 301742233#1 531654227#0 531654227#1 38162149#0 38162149#1 38162149#2 491963103#0 491963103#1 538947356 432815431#0 432815431#1 432815431#2 432815431#3 432815431#4 432815431#5 432815431#6 432815431#7 432815431#8 449954911#0 449954911#1 449954911#2 449954908#0 449954908#1 38162152#0 38162152#1 38162152#2 894761907#0 894761907#1 431762835#1 431762835#2 431762835#3 431762835#3-AddedOffRampEdge 431762835#4 895703872 431777057#0 431777057#1 431777057#2 399552675 291018415 895703871#0 895703871#1 895703871#2 895703870 531435610#0 24611163#0 24611163#1 24611163#2 24611164#3 24611164#4 24743384#1 24743384#2 24743384#3 -24743384#3"/>
    </vehicle>
    <vehicle id="4" depart="144.00">
        <route edges="24407884#1 24407884#2 431762836#2 431762836#3 532880276 896509195 432807567#0 432807567#1 432807567#2 399552674 540366537#0 540366537#1 895306715 291018417#0 291018417#1-AddedOnRampEdge 291018417#1 -63521601#7 -63521601#6 -63521601#5 -63521601#4 -24380147#2 -24380147#1"/>
    </vehicle>
    <vehicle id="5" depart="180.00">
        <route edges="168035374#1 895703872 431777057#0 431777057#1 431777057#2 399552675 291018414#0 291018414#1 431779832#0 431779832#1 427112227#0 427112227#1 532880276 896509195 432807567#0 432807567#1 432807567#2 399552674 540366537#0 540366537#1 895306715 291018417#0 291018417#1-AddedOnRampEdge 291018417#1 895315740#0 895315740#1 895315739#0 895315739#1 314066422#0 314066422#1 314066422#2 314066425#0 314066425#1 895315736 532880275#0 532880275#1 420575341#0 420575341#1 532883882#0 532883882#1 894761908#0 894761908#1 314066426#0 314066426#1 314066426#2 314066428#0"/>
    </vehicle>
    <vehicle id="6" depart="216.00">
        <route edges="-24362226#2 -24362226#1 -24362226#0 427683988#3 427683988#4 427683988#5 427683988#6 534442024 534442023 420559878 533130556#1 533131559 533131554#0 533131554#1 24392968#1 431722535#0 431722535#1 431722535#2 534451244#0 534451244#1 534451244#2 534451244#3 534451243#0 534451243#1 534451243#2 145816539"/>
    </vehicle>
    <vehicle id="7" depart="252.00">
        <route edges="423215400-AddedOffRampEdge 35415483#0 35415483#1 35415483#2 206604514#2 -533138042#4 -533138042#3 -533138042#2 -533138042#1 -533138042#0 532915329#0 532915329#1 533136492#0 533136492#1 532915328#0 532915328#1 532915328#2 533136935#0 533136935#1 533136935#2 533136935#3 533136933 329479525#3 666145764#0 666145764#1 666145764#2 666145764#3 666145765 666202114#0 666202114#1 666202114#2 431777058#2 531424823#0 531424823#1 531424820#0 531424820#1 531425157#1 531425157#2 431779789 420367087#0 420367087#1 420367087#2 896527657 143605446#0 143605446#1 143605446#2 143605446#3 143605446#4 143605446#5 143605446#6 355826440#0 355826440#1 533130565-AddedOnRampEdge 533130565 538760914#1 533130564#0 533130564#1 24392961#0 24392961#1 24392961#2 895389068#0 895389068#1 301742234#0 301742234#1 -361093020 361093020"/>
    </vehicle>
    <vehicle id="8" depart="288.00">
        <route edges="173178113#0 173178113#1 173178113#2 35415285#0 35415285#1 900733672 532145757#0 532145757#1 399551609 896527658#0 896527658#1 896527657 143605446#0 143605446#1 143605446#2 143605446#3 143605446#4 143605446#5 143605446#6 355826440#0 355826440#1 533130565-AddedOnRampEdge 533130565 538760914#1 533130564#0 533130564#1 24392961#0 24392961#1 24392961#2 895389068#0 895389068#1 301742234#0 301742234#1 895700018#0 895700018#1 533130563#1 533130562#0 533130562#1 533130561#1 533130560 24399821 1094234986 24392954#1 541057210 533133257 24399819 533133252 533133251#1 423228968 415941075#0 415941075#1 415941075#2 415941075#3 415941075#4 415941075#5 415941075#6 415941075#7 415941075#8 415941075#9 24392947#0 24392947#1 24215823#0 24215823#1 24215823#2 24215823#3 415948027#3 415948027#4 415948027#5 415948027#6 415948027#7"/>
    </vehicle>
    <vehicle id="9" depart="324.00">
        <route edges="532198426#1 35415285#0 35415285#1 900733672 532205082#0 532205082#1 532205082#2 532205082#3 532205082#4 532205080#0 532205080#1 532205080#2 36268579#0 36268579#1 36268579#2 36268577#0 36268577#1 36268577#2 268437066#0 268437066#1 532205073 532915331#0 532915331#1 532915331#2 532915331#3 532915331#4 532915331#5 532915331#6 532915331#7 532915331#8 532915331#9 532915331#10 1042873651 533136493#0 533136493#1 24407841#1 533138042#0 533138042#1 533138042#2 533138042#3 1205674954#0 1205674954#1 -1205674955 -1205674954#0"/>
    </vehicle>
    <vehicle id="10" depart="360.00">
        <route edges="532145755 198496656#0 198496656#1 198496656#2 198496656#3 198496656#4 198496656#5 198496656#6 198496656#7 198496656#8 532145754#1 532145752 532145753#0 532145753#1 532145753#1-AddedOffRampEdge 532145753#2 532145753#3 532145753#4 532145753#5 431779831#0"/>
    </vehicle>
    <vehicle id="11" depart="396.00">
        <route edges="24392945#2 1170951421#0 1170951421#1 1170951421#2 415941074#0 415941074#1 541054544 533133258 -1094143380 -24392954#0 24399817 24399820#0 24399820#1 24399820#2 24399820#3 426402284#0 426402284#1 426402284#2 350987527#0 350987527#1 350987527#2 533113540#1 538771254#0 538771254#1 538771254#2 301742231#0 301742231#1 301742231#2-AddedOnRampEdge 301742231#2 301742231#3 301742231#3-AddedOffRampEdge 533113537 160695143#0 160695143#1 1167746937 532221965#0 532221965#1 1167746939#0 1167746939#1 492187420#0 492187420#1 532198427#0 532198427#1 532198426#0 532198426#1 35415285#0 35415285#1 900733672 532205082#0 532205082#1 532205082#2 532205082#3 532205082#4 532205080#0 532205080#1 532205080#2 36268579#0 36268579#1 36268579#2 36268577#0 36268577#1 36268577#2 422737220#0 422737220#1 422737218#0 422737218#1 422737218#2 422737218#3 422737218#4 1168375255#0 1168375255#1 666902269#0 666902269#1 -666902269#1 -666902269#0"/>
    </vehicle>
    <vehicle id="12" depart="432.00">
        <route edges="894427365#0 1216738513 1216738512#1 492187418#0 492187418#1 24406415#0 24406415#1 24406415#2 24743363#0 24743363#1 900733671#0 900733671#1 532145757#0 532145757#1 399551609 896527658#0 896527658#1 896527657 143605446#0 143605446#1 143605446#2 143605446#3 143605446#4 143605446#5 143605446#6 355826440#0 355826440#1 533130565-AddedOnRampEdge 533130565 538760914#1 533130564#0 533130564#1 24392961#0 24392961#1 24392961#2 895389068#0 895389068#1 301742234#0 301742234#1 895700018#0 895700018#1 533130563#1 533130562#0 533130562#1 533130561#1 533130560 24399821 1094234986 24392954#1 541057210 533133257 24399819 533133252 533133251#1 423228967#0 423228967#1 423228967#2 423228967#3 415948031#0 415948031#1 533133250#1 423449396 24392945#0 24392945#1 24392945#2"/>
    </vehicle>
    <vehicle id="13" depart="468.00">
        <route edges="-24743379#1 -24743379#0 24743384#2 24743384#3 24743384#4 24743384#5 24743384#6 371256171#5 531644016 531644527#0 531644527#1 531644526 291018413#0 291018413#1 531645873 531645872#1 531645872#2 531645870#0 531645870#1 531645870#2 531645870#3 531645870#4 531645870#5 531645870#6 531645870#7 531645870#8 533136935#0 533136935#1 533136935#2 533136935#3 533136933 329479525#3 533136496 533136495#0 533136495#1 533136494 24407883#0 24407883#1 291083116#0 291083116#1 291083116#2 532915330 532915326#0 532915326#1 532915326#2 -289597340#4 -289597340#3 -289597340#2"/>
    </vehicle>
    <vehicle id="14" depart="504.00">
        <route edges="533107303#0 533107303#1 533107303#2 533133249#0 533133249#1 533107299#0 533107299#1 24394141#1 24394141#2 24394141#3 533133248#0 533133248#1 531381936#1 431743791 894734933#0 894734933#1 894734933#2 894734933#3 894734933#4 894734933#5 176088062#0 176088062#1 176088062#2 176088062#3 882165259 431777055 882165254 532883886#0 532883886#1 532883885#1 532883884#0 532883884#1 532883883#1 532883882#0 532883882#1 894761908#0 894761908#1 314066426#0 314066426#1 314066426#2 314066428#0 314066428#1 894761907#0 894761907#1 431762835#1 431762835#2 431762835#3 431762835#3-AddedOffRampEdge 431762835#4 895703872 431777057#0 431777057#1 431777057#2 399552675 291018414#0 291018414#1 431779832#0 431779832#1 432807566#0 432807566#1 432807566#2 432807565#0 432807565#1 431918277#1 290622853#0 290622853#1 291018412#0 291018412#1 532915322#2 532916469#0 532916469#1 431942730#0 431942730#1 431942730#2 420354162#0 420354162#1 420354162#2 420354162#3 420354162#4 420354162#5"/>
    </vehicle>
    <vehicle id="15" depart="540.00">
        <route edges="532145756#2 532145756#3 532145755 24406394#0 24406394#1 24406394#2 328853264#0 532205082#3 532205082#4 532205080#0 532205080#1 532205080#2 36268579#0 36268579#1 36268579#2 36268577#0 36268577#1 36268577#2 268437066#0 268437066#1 532205073 532915331#0 532915331#1 532915331#2 532915331#3 532915331#4 532915331#5 532915331#6 532915331#7 532915331#8 532915331#9 532915331#10 1042873651 532915330 532915326#0 532915326#1 532915326#2 532915324#0 532915324#1 532915324#1-AddedOffRampEdge 532915324#2 532915323#0 532915323#1 532915322#0 532915322#1 532915322#2 290622852#0 290622852#1 518179875#0 518179875#1 291018411#0 291018411#1 431762836#1 431762836#2 431762836#3 532880276 896509195 432807567#0"/>
    </vehicle>
    <vehicle id="16" depart="576.00">
        <route edges="35418056#2 35418056#3 35418056#4 35418056#5 35418056#6 35415298#2 35415298#3 -24406395 532205080#0 532205080#1 532205080#2 36268579#0 36268579#1 36268579#2 36268577#0 36268577#1 36268577#2 268437066#0 268437066#1 532205073 532915331#0 532915331#1 532915331#2 532915331#3 532915331#4 532915331#5 532915331#6 532915331#7 532915331#8 532915331#9 532915331#10 1042873651 532915330 532915326#0 532915326#1 532915326#2 532915324#0 532915324#1 532915324#1-AddedOffRampEdge 532915324#2 532915323#0 532915323#1 532915322#0 532915322#1 532915322#2 290622852#0 290622852#1 518179875#0 518179875#1 291018411#0 291018411#1 431762836#1 431762836#2 431762836#3 532880276 896509195 432807567#0 432807567#1 432807567#2 399552674 540366537#0 540366537#1 895306715 291018417#0 291018417#1-AddedOnRampEdge 291018417#1 895315740#0"/>
    </vehicle>
    <vehicle id="18" depart="648.00">
        <route edges="532883886#1 532883885#1 532883884#0 532883884#1 532883883#1 532883882#0 532883882#1 38162145#0 38162145#1 531677028#0 531677028#1 531677028#2 531677028#3 894761905#0 894761905#1 894761905#2 531679655#0 531679655#1 531679655#2 531679655#3 531679652#1 24392956#3 24392956#4 24392956#5 24392956#6 24392956#7 420559876 -24392954#0 24399817 24399820#0 24399820#1 24399820#2 24399820#3 426402284#0 426402284#1 426402284#2 350987527#0 350987527#1 350987527#2 533113540#1 531682475#0 531682475#1 531683144#0 531683144#1 531683143#1 531683143#2 -431975166#2 -431975166#1 -431975166#0 -61434701#10 -61434701#9 -61434701#8 -61434701#7 420559870#0 420559870#1"/>
    </vehicle>
    <vehicle id="19" depart="684.00">
        <route edges="533133251#1 423228967#0 423228967#1 423228967#2 423228967#3 415948031#0 415948031#1 533133250#1 423449396 415939471#0 415939471#1 415939471#2 415939471#3"/>
    </vehicle>
    <vehicle id="20" depart="720.00">
        <route edges="431782142 532211369#1 399551609 896527658#0 896527658#1 896527657 143605446#0 143605446#1 143605446#2 143605446#3 143605446#4 143605446#5 143605446#6 355826440#0 355826440#1 533130565-AddedOnRampEdge 533130565 538760914#1 533130564#0 533130564#1 531653099#0 531653099#1 538922917#0 538922917#1 531653929#0 531653929#1 531653929#2 531653929#3 531653929#4 301742233#0 301742233#1 531654227#0 531654227#1 38162149#0 38162149#1 38162149#2 491963103#0 491963103#1 538947356 24392956#0 24392956#1 24392956#2 24392956#3 24392956#4 -24380153#15 -24380153#14 -24380153#13 -24380153#12 -24380363#5 -24380363#4 -24380363#3 -24380363#2 -24380363#1"/>
    </vehicle>
    <vehicle id="22" depart="792.00">
        <route edges="-24611138#0 24611138#0 24611138#1 24611138#2 24611138#3 24611138#4 24611138#5 24611148#0 24611148#1 -24611142#5 -24611142#4 -24611142#3 -24611142#2 -24611142#1 -24611142#0 420354174#0 420354174#1 532915322#0 532915322#1 532915322#2 290622852#0 290622852#1 531644526 291018413#0 291018413#1 531645873 531645872#1 531645872#2 531645870#0 531645870#1 531645870#2 531645870#3 531645870#4 531645870#5 531645870#6 531645870#7 531645870#8 533136935#0 533136935#1 533136935#2 533136935#3 533136933 206604511#0"/>
    </vehicle>
    <vehicle id="23" depart="828.00">
        <route edges="-268612044#1 -268612044#0 268612044#0 268612044#1 268612044#2 268612044#3 63521601#1 63521601#2 63521601#3 63521601#4 63521601#5 63521601#6 63521601#7 895315740#0 895315740#1 895315739#0 895315739#1 314066422#0 314066422#1 314066422#2 314066425#0 314066425#1 895315736 532880275#0 532880275#1 420575341#0 420575341#1 1056337610#0 1056337610#1 1056337611 24380152#0 24380152#1 24380152#2 24380152#3 594768476#0 594768476#1 594768476#2 594768476#3 594768476#4 594768476#5 594768476#6 594768476#7 594768476#8 594768476#9 594768476#10 421470472#0 421470472#1 421470472#2 24392956#7 420559876 -24392954#0 24399817 24399820#0 24399820#1 24399820#2 24399820#3 426261235#0 426261235#1 426261235#2 420559869#0 420559869#1 420559875#5 420559875#6 415967448#0 415967448#1 -415967451 24362224#0 24362224#1"/>
    </vehicle>
    <vehicle id="24" depart="864.00">
        <route edges="420642692#0 420642692#1 427678845#1 24392971 -423456879 36154167 532945627 24421104#0 24421104#1 427670514#0 427670514#1 427670514#2 538947356 24392956#0 24392956#1 24392956#2 24392956#3 24392956#4 24392956#5 24392956#6 24392956#7 420559876 24392954#1 541057210 533133257 24399819 533133252 533133251#1 423228967#0 423228967#1 423228967#2 423228967#3 415948031#0 415948031#1 533133250#1 533107303#0 533107303#1 533107303#2 533133249#0 533133249#1 533107299#0 533107299#1 24394141#1 24394141#2 24394141#3 533133248#0 533133248#1 531381936#1 431743791 431777054 431921289 531388524#0 531388524#1 531388524#2 531388524#3 24394170#0"/>
    </vehicle>
    <vehicle id="25" depart="900.00">
        <route edges="24399817 24399820#0 24399820#1 24399820#2 24399820#3 -252844555 533130562#0 533130562#1 533130561#1 533130560 24399821 1094234986 24392954#1 541057210 533133257 24399819 533133252 533133251#1 423228967#0 423228967#1 423228967#2 423228967#3 415948031#0 415948031#1 533133250#1 533107303#0 533107303#1 533107303#2 533133249#0 533133249#1 -533107309 -149731536#4 -149731536#3 149731536#3 149731536#4"/>
    </vehicle>
    <vehicle id="27" depart="972.00">
        <route edges="422737220#1 422737219#0 422737219#1 268437066#1 532205073 532915331#0 532915331#1 532915331#2 532915331#3 532915331#4 532915331#5 532915331#6 532915331#7 532915331#8 532915331#9 532915331#10 1042873651 533136493#0 533136493#1 24407841#1 533138042#0 533138042#1 533138042#2 533138042#3 533138042#4 423218107#0 423218107#1 1169160955 420357726#0"/>
    </vehicle>
    <vehicle id="28" depart="1008.00">
        <route edges="1038309192#3 531680938 350987112#0 350987112#1 301742234#0 301742234#1 895700018#0 895700018#1 533130563#1 533130562#0 533130562#1 533130561#1 533130560 24399818#0 24399818#1 24399818#2 895697597#0 895697597#1 420559877 24392977 533130559#1 533131559 533131554#0 533131554#1 24392968#1 431722535#0 431722535#1 431722535#2 534451244#0 534451244#1 534451244#2 534451244#3 534451243#0 534451243#1 534451243#2 894740292 36295654#0 36295654#1 36295654#2 882165254 532883886#0 532883886#1 532883885#1 532883884#0 532883884#1 532883883#1 532883882#0 532883882#1 894761908#0 894761908#1 314066426#0 314066426#1 314066426#2 314066428#0 314066428#1 894761907#0 894761907#1 431762835#1 431762835#2 431762835#3 431762835#3-AddedOffRampEdge 431762835#4 895703872 431777057#0 431777057#1 431777057#2 399552675 291018414#0 291018414#1 431779832#0 431779832#1 432807566#0 432807566#1"/>
    </vehicle>
    <vehicle id="29" depart="1044.00">
        <route edges="-666902269#1 -666902269#0 -531917433 -432301142 -420360412 420360413 432198824#0 432198824#1 432198824#2 537707575 432206583 432198823#0 432198823#1 432198823#2 432198823#3 432198823#4 432198823#5 532205075#0 532205075#1 532205075#2 35415298#0 35415298#1 35415298#2 35415298#3 35415298#4 532211373#1 431782142 532211369#1 399551609 896527658#0 896527658#1 896527657 143605446#0 143605446#1 1205695720 35415292#0 35415292#1 35415292#2 24406378#4 24406378#5 24406378#6 24406378#7 24406378#8"/>
    </vehicle>
    <vehicle id="30" depart="1080.00">
        <route edges="897701712#1 897701712#2 897701712#3 897701712#4 897701712#5 897701712#6 897701712#7 897701712#8 897701712#9 897701712#10 897701712#11 24743363#0 24743363#1 900733671#0 900733671#1 532145757#0 532145757#1 399551609 896527658#0 896527658#1 896527657 143605446#0 143605446#1 143605446#2 143605446#3 143605446#4 143605446#5 143605446#6 355826440#0 355826440#1 533130565-AddedOnRampEdge 533130565 538760914#1 533130564#0 533130564#1 531653099#0 531653099#1 538922917#0 538922917#1 531653929#0 531653929#1 531653929#2 531653929#3 531653929#4 301742233#0 301742233#1 531654227#0 531654227#1 38162149#0 38162149#1 38162149#2 491963103#0 491963103#1 538947356 24392956#0 24392956#1 24392956#2 24392956#3 24392956#4 24392956#5 24392956#6 24392956#7 24392956#8 24392956#9 421470776#0 421470776#1"/>
    </vehicle>
    <vehicle id="31" depart="1116.00">
        <route edges="36576030#0 36576030#1 36576030#2 36576030#3 36576030#4 533136498#3 533136498#4 533136496 666145760#0 666145760#1 666145760#2 666145760#3 666145760#4 666145760#5 666145760#6 666145760#7 666145760#8 666145760#9 24407884#0 24407884#1 24407884#2 431762836#2 431762836#3 532880276 896509195 432807567#0 432807567#1 432807567#2 399552674 540366537#0 540366537#1 895306715 291018417#0 291018417#1-AddedOnRampEdge 291018417#1 895315740#0 895315740#1 895315739#0 895315739#1 314066422#0 314066422#1 314066422#2 314066425#0 314066425#1 895315736 532880275#0 532880275#1 420575341#0 420575341#1 1056337610#0 1056337610#1 1056337611 24380152#0 24380152#1 24380152#2 24380152#3 594768476#0 594768476#1 594768476#2 594768476#3 594768476#4 594768476#5 594768476#6 -431722537#2 -431722537#1 -431722537#0 431722536#0 431722536#1 431722536#2 431722536#3 431722536#4 431722536#5 431722536#6"/>
    </vehicle>
    <vehicle id="32" depart="1152.00">
        <route edges="532916469#1 431942730#0 24611138#0 24611138#1 24611138#2 24611138#3 24611138#4 24611138#5 24611148#0 24611148#1 -24611142#5 -24611142#4 -24611142#3 -24611142#2 -24611142#1 -24611142#0 420354174#0 420354174#1 532915322#0 532915322#1 532915322#2 290622852#0 290622852#1 518179875#0 518179875#1 291018411#0 291018411#1 431762836#1 431762836#2 431762836#3 532880276 896509195 168035373#0 168035373#1 895703871#2 895703870 531435610#0 24611163#0 24611163#1 24611163#2 24611164#3 24611164#4 24743384#1 24743384#2 24743384#3 24743384#4 24743384#5 24743384#6 371256171#5 531644016 531644527#0"/>
    </vehicle>
    <vehicle id="33" depart="1188.00">
        <route edges="192148222#0 192148222#1 192148222#2 24407876#0 24407876#1 289598332#1 289598332#2 289598332#3 24407848#0 24407848#1 24407848#2 24407848#3 432198824#0 432198824#1 432198824#2 537707575 432206583 432198823#0 24407845#0 24407845#1 24407845#2 532915331#3 532915331#4 532915331#5 532915331#6 532915331#7 532915331#8 532915331#9 532915331#10 1042873651 532915330 532915326#0 532915326#1 532915326#2 532915324#0 532915324#1 532915324#1-AddedOffRampEdge 532915324#2 532915323#0 532915323#1 532915322#0 532915322#1 532915322#2 290622852#0 290622852#1 518179875#0 518179875#1 291018411#0 291018411#1 431762836#1 431762836#2 431762836#3 532880276 896509195 432807567#0 432807567#1 432807567#2 399552674 540366537#0 540366537#1 895306715 291018417#0 291018417#1-AddedOnRampEdge 291018417#1 895315740#0 895315740#1 895315739#0 895315739#1 314066422#0 314066422#1 314066422#2 314066425#0 314066425#1 895315736 532880275#0 532880275#1 420575341#0 420575341#1 1056337610#0 1056337610#1 1056337611 24380152#0 24380152#1 24380152#2 24380152#3 -24380154#5 -24380154#4 -24380154#3 -24380154#2 -24380153#1 -24380153#0"/>
    </vehicle>
    <vehicle id="34" depart="1224.00">
        <route edges="24380157#0 24380157#1 24380157#2 24380157#3 24380157#4 302976236#0 302976236#1 302976236#2 531654227#0 531654227#1 38162149#0 38162149#1 38162149#2 491963103#0 491963103#1 538947356 24392956#0 24392956#1 24392956#2 24392956#3 24392956#4 24392956#5 24392956#6 24392956#7 420559876 24392954#1 541057210 533133257 24399819 533133252 533133251#1 423228968 415941075#0 415941075#1 415941075#2 415941075#3 415941075#4 415941075#5 415941075#6 415941075#7 415941075#8 415941075#9 24392947#0 24392947#1 24215832#0"/>
    </vehicle>
    <vehicle id="35" depart="1260.00">
        <route edges="149731536#1 -149731536#1 -149731536#0 531381533#6 531381533#7 531381937#0 531381937#1 531381937#2 531381936#0 531381936#1 431743791 894734933#0 894734933#1 894734933#2 894734933#3 894734933#4 894734933#5 176088062#0 176088062#1 176088062#2 176088062#3 882165259 431777055 882165254 532883886#0 532883886#1 532883885#1 532883884#0 532883884#1 532883883#1 532883882#0 532883882#1 894761908#0 894761908#1 314066426#0 314066426#1 314066426#2 314066428#0 314066428#1 894761907#0 894761907#1 431762835#1 431762835#2 431762835#3 431762835#3-AddedOffRampEdge 431762835#4 895703872 431777057#0 431777057#1 431777057#2 399552675 291018414#0 291018414#1 431779832#0 431779832#1 432807566#0 432807566#1 540384622#0 540384622#1 540384622#2 894109332 1170988823#1 1170988823#2 329479525#0 329479525#1 329479525#2 329479525#3 533136496 533136495#0 533136495#1 533136494 24407883#0 24407883#1 291083116#0 291083116#1 291083116#2 533136493#0 533136493#1 24407841#1 533138042#0 533138042#1 533138042#2 533138042#3 533138042#4 423218107#0 423218107#1 1169160955 420357726#0 420357726#1 420357726#2 -668965050#1 668965050#1"/>
    </vehicle>
    <vehicle id="36" depart="1296.00">
        <route edges="534442024 534442023 24362231#0 24362231#1 36154168#1 420559873#0 146216539 895697597#0 895697597#1 24392958#0 24392958#1 895697596 532945627 24421104#0 24421104#1 427670514#0 427670514#1 427670514#2 538947356 432815431#0 432815431#1 432815431#2 432815431#3 432815431#4 24380159#0"/>
    </vehicle>
    <vehicle id="37" depart="1332.00">
        <route edges="423228968 415941074#0 415941074#1 541054544 533133258 -1094143380 -24392954#0 24399817 24399820#0 24399820#1 24399820#2 24399820#3 426402284#0 426402284#1 426402284#2 350987527#0 350987527#1 350987527#2 533113540#1 538771254#0 538771254#1 538771254#2 301742231#0 301742231#1 301742231#2-AddedOnRampEdge 301742231#2 301742231#3 301742231#3-AddedOffRampEdge 533113537 160695143#0 160695143#1 1167746937 532221965#0 532221965#1 1167746939#0 1167746939#1 492187420#0 492187420#1 532198427#0 532198427#1 532198426#0 532198426#1 35415285#0 35415285#1 900733672 532205082#0 532205082#1 532205082#2 532205082#3 532205082#4 532205080#0 532205080#1 532205080#2 36268579#0 36268579#1 36268579#2 36268577#0 36268577#1 36268577#2 268437066#0 268437066#1 532205073 532915331#0 532915331#1 532915331#2 532915331#3 532915331#4 532915331#5 532915331#6 532915331#7 532915331#8 532915331#9 532915331#10 1042873651 533136493#0 533136493#1 24407841#1"/>
    </vehicle>
    <vehicle id="38" depart="1368.00">
        <route edges="60268212#3 60268212#4 -61434701#6 -61434701#5 -61434701#4 -61434701#3 -61434701#2 -61434701#1 -61434701#0 415967432#0 415967432#1 415967432#2 415967432#3 24362218#0 24362218#1 415967429 894318046 427683988#1 427683988#2 427683988#3 427683988#4 427683988#5 427683988#6 534442024 534442023 420559878 533130556#1 533131559 533131554#0 533131554#1 24392968#1 431722535#0 431722535#1 431722535#2 534451244#0 534451244#1 534451244#2 534451244#3 534451243#0 534451243#1 534451243#2 894740292 36295654#0 36295654#1 36295654#2 882165254 532883886#0 532883886#1 532883885#1 532883884#0 532883884#1 532883883#1 532883882#0 532883882#1 894761908#0 894761908#1 314066426#0 314066426#1 314066426#2 314066428#0 314066428#1 894761907#0 894761907#1 431762835#1 431762835#2 431762835#3 431762835#3-AddedOffRampEdge 431762835#4 895703872 431777057#0 431777057#1 431777057#2 399552675 291018414#0 291018414#1 431779832#0 431779832#1 432807566#0 432807566#1 432807566#2 432807565#0 432807565#1 431918277#1 290622853#0 290622853#1 291018412#0 291018412#1 532915322#2 532916469#0 532916469#1 431942730#0 431942730#1 431942730#2 420354162#0 420354162#1 420354162#2 -24743514#3 -24743514#2 -24743514#1 -24743514#0 24743514#0 24743514#1"/>
    </vehicle>
    <vehicle id="39" depart="1404.00">
        <route edges="24215823#0 24215823#1 24215823#2 24215823#3 415948027#3 415948027#4 415948027#5 538986211#2 538986211#3 538986211#4 415941075#5 415941075#6 415941075#7 415941075#8 415941075#9 24392947#0 24392947#1 24215832#0 24215832#1 24215832#2 898075486#0 898075486#1 420642691#0 420642691#1 420642691#2 24392972#2 24392972#3 24215660#0 538971357 24215127#0 24215127#1 24215127#2 24215127#3 24215127#4 24215127#5 24215127#6 24215127#7 24215127#8 24215123#3 24215123#4 24215123#5"/>
    </vehicle>
    <vehicle id="40" depart="1440.00">
        <route edges="37092616#3 955144414 955144415#1 882165257 431768084 882165259 50599644#0 50599644#1 50599644#2 894734931 534493843 -898070449#3 -898070449#2 -898070449#1 -898070449#0 36295655#11 36295655#12 36295655#13 36295655#14 423449397#0 423449397#1 423449396 415939471#0 415939471#1 415939471#2 415939471#3 24392951#0 24392951#1 24392951#2 24392951#3 24392951#4 24392951#5 415941075#3 415941075#4 415941075#5 415941075#6 415941075#7 415941075#8 415941075#9 24392947#0 24392947#1 24215823#0 24215823#1"/>
    </vehicle>
    <vehicle id="41" depart="1476.00">
        <route edges="415941075#9 24392947#0 24392947#1 24215832#0 24215832#1 24215832#2 898075486#0 898075486#1 420642691#0 420642691#1 420642691#2 24392972#2 24392972#3 538971360#0 538971360#1 538971359"/>
    </vehicle>
    <vehicle id="42" depart="1512.00">
        <route edges="24407843#2 423218106#3 532210050#0 532210050#1 532210050#2 532210050#3 432206583 432198823#0 24407845#0 24407845#1 24407845#2 532915331#3 532915331#4 532915331#5 532915331#6 532915331#7 532915331#8 532915331#9 532915331#10 1042873651 532915330 532915326#0 532915326#1 532915326#2 532915324#0 532915324#1 532915324#1-AddedOffRampEdge 532915324#2 532915323#0 532915323#1 532915322#0 532915322#1 532915322#2 290622852#0 290622852#1 518179875#0 518179875#1 291018411#0 291018411#1 431762836#1 431762836#2 431762836#3 532880276 896509195 432807567#0 432807567#1 432807567#2 399552674 540366537#0 540366537#1 895306715 291018417#0 291018417#1-AddedOnRampEdge 291018417#1 895315740#0 895315740#1 895315739#0 895315739#1 314066422#0 314066422#1 314066422#2 314066425#0 314066425#1 895315736 532880275#0 532880275#1 291018418#0 291018418#1 532880274#1 431779833#0 431779833#1 431779833#2 882165258 50599625 882165257 24394140#0 24394140#1 409705243#1 328863618 176088062#0 176088062#1 176088062#2 176088062#3"/>
    </vehicle>
    <vehicle id="43" depart="1548.00">
        <route edges="898075486#1 420642691#0 420642691#1 420642691#2 24392972#2 24392972#3 24215660#0 538971357 532945151#0 532945151#1 427678845#0 427678845#1 427678843#0 427678843#1 427635214 36154168#1 420559873#0 146216539 895697597#0 895697597#1 420559877 24392977 533130559#1 533131559 533131554#0 533131554#1 24392968#1 431722535#0 431722535#1 431722535#2 534451244#0 534451244#1 534451244#2 534451244#3 534451243#0 534451243#1 534451243#2 894740292 36295654#0 36295654#1 36295654#2 882165254 532883886#0 532883886#1 532883885#1 1056337613#2 1056337613#3 431779834#0 431779834#1 431779834#2 431779834#3 -24379838#5 -24379838#4 -24379838#3 -24379838#2 -24379838#1 -24379838#0 320574908#0"/>
    </vehicle>
    <vehicle id="44" depart="1584.00">