<?xml version="1.0" encoding="UTF-8"?>

<!-- generated on 2024-03-10 23:22:31 by Eclipse SUMO polyconvert Version v1_19_0+1213-edb5da6ce7a
<configuration xmlns:xsi="http://www.w3.org/2001/XMLSchema-instance" xsi:noNamespaceSchemaLocation="http://sumo.dlr.de/xsd/polyconvertConfiguration.xsd">

    <input>
        <net-file value="Desktop/epn/mapa.net.xml"/>
        <osm-files value="Desktop/epn/map.osm"/>
    </input>

    <output>
        <output-file value="Desktop/epn/mapa.poly.xml"/>
    </output>

    <report>
        <verbose value="true"/>
    </report>

</configuration>
-->

<additional xmlns:xsi="http://www.w3.org/2001/XMLSchema-instance" xsi:noNamespaceSchemaLocation="http://sumo.dlr.de/xsd/additional_file.xsd">
    <location netOffset="-778168.49,21501.17" convBoundary="-467.95,-1439.99,5198.36,4506.47" origBoundary="-78.505157,-0.207354,-78.454283,-0.153607" projParameter="+proj=utm +zone=17 +ellps=WGS84 +datum=WGS84 +units=m +no_defs"/>

    <poly id="1033407384" type="tourism" color="207,245,201" fill="1" layer="-2.00" shape="1894.205247,866.460066 1890.573459,861.437646 1887.876879,853.582774 1889.342039,818.056885 1886.634055,808.365434 1987.488410,790.903430 1994.959326,848.677267 1894.205247,866.460066"/>
    <poly id="1033567679" type="tourism" color="207,245,201" fill="1" layer="-2.00" shape="1893.752650,739.581120 1848.060258,794.054487 1863.121820,812.561965 1919.025702,819.667936 1976.900210,820.732821 1893.752650,739.581120"/>
    <poly id="1033874782" type="natural" color="140,196,107" fill="0" layer="-4.00" shape="2289.810276,1390.914832 2217.959206,1404.997974"/>
    <poly id="1033875185" type="natural" color="140,196,107" fill="0" layer="-4.00" shape="2202.633418,1408.429879 2147.611801,1418.826424"/>
    <poly id="1040860345" type="building" color="255,230,230" fill="1" layer="-1.00" shape="2400.930015,332.283418 2395.895969,335.404145 2385.170780,342.055054 2373.855264,348.717112 2367.194789,350.200637 2360.289055,350.201651 2352.725958,348.808726 2347.758017,346.983932 2351.119404,330.830322 2357.588928,318.471129 2378.938908,304.162520 2382.938303,309.273398 2388.363667,316.209591 2395.237280,324.993223 2400.930015,332.283418"/>
    <poly id="1049480294" type="building" color="255,230,230" fill="1" layer="-1.00" shape="1605.862923,2020.436367 1601.884278,2003.420900 1620.997004,1999.866865 1622.256582,2006.958541 1623.704587,2007.212811 1625.543594,2016.096732 1605.862923,2020.436367"/>
    <poly id="1049484853" type="building" color="255,230,230" fill="1" layer="-1.00" shape="799.954377,1339.997091 812.540249,1338.158772 811.537281,1334.330885 807.806066,1334.840333 806.869600,1328.666941 805.087494,1328.667189 804.307253,1324.584807 797.635632,1325.592529 799.954377,1339.997091"/>
    <poly id="1049484854" type="building" color="255,230,230" fill="1" layer="-1.00" shape="783.894174,1347.411978 798.017056,1345.175154 797.013967,1340.473238 799.954377,1339.997091 797.635632,1325.592529 780.238225,1328.515759 783.894174,1347.411978"/>
    <poly id="1049484855" type="building" color="255,230,230" fill="1" layer="-1.00" shape="797.725976,1414.632849 813.163050,1411.566074 815.737631,1423.569789 810.848083,1424.344923 812.397387,1432.266289 800.825148,1434.558071 797.725976,1414.632849"/>
    <poly id="1049484857" type="building" color="255,230,230" fill="1" layer="-1.00" shape="827.143645,1347.195750 828.893287,1354.021786 819.058667,1356.766942 815.982606,1342.926730 827.866720,1340.690216 829.293270,1346.896732 827.143645,1347.195750"/>
    <poly id="1049484858" type="building" color="255,230,230" fill="1" layer="-1.00" shape="835.219487,1352.007319 844.920564,1350.080892 844.139619,1340.931351 840.943038,1341.462852 840.117847,1334.526050 829.982368,1336.352966 828.489505,1333.852786 826.985901,1334.195969 827.955725,1339.971066 831.341762,1340.213995 831.052604,1343.333988 834.538831,1343.189675 835.219487,1352.007319"/>
    <poly id="1049484859" type="residential" color="235,235,227" fill="1" layer="-3.00" shape="843.782664,1417.248549 864.721949,1413.815909 869.725382,1431.074532 866.317256,1432.192434 865.481568,1429.847053 863.565881,1430.411566 862.440731,1429.006636 858.219364,1429.007222 857.595456,1427.779241 846.513286,1430.015638 843.782664,1417.248549"/>
    <poly id="1049484860" type="tourism" color="207,245,201" fill="1" layer="-2.00" shape="797.465529,1464.220207 805.295440,1462.625957 796.121781,1412.475658 788.202706,1413.638441 797.465529,1464.220207"/>
    <poly id="1049484861" type="tourism" color="207,245,201" fill="1" layer="-2.00" shape="851.963834,1458.769344 850.058095,1450.737388 876.866788,1444.338877 869.154415,1410.020457 875.146584,1408.813685 881.646468,1454.472533 851.963834,1458.769344"/>
    <poly id="1049484862" type="residential" color="235,235,227" fill="1" layer="-3.00" shape="813.756393,1433.350340 836.578091,1430.393179 834.671812,1418.477879 816.728729,1422.131376 816.729139,1425.085373 812.452163,1425.672340 813.756393,1433.350340"/>
    <poly id="1077529549" type="residential" color="235,235,227" fill="0" layer="-3.00" shape="1966.317063,576.546331 2009.826964,603.325363 2018.482160,608.645774 2068.386005,639.373660 2230.395526,740.296041 2377.222335,831.761282 2398.367351,941.345011 2399.270369,947.064857 2459.593857,1330.294762"/>
    <poly id="1102793907" type="parking" color="184,184,179" fill="1" layer="-1.00" shape="905.768256,1110.433378 904.653908,1106.660824 900.274526,1091.902508 899.772973,1089.523891 898.291019,1085.430543 912.146025,1079.188680 915.286787,1077.749960 916.890595,1077.119104 919.129410,1077.417508 923.685173,1079.187052 950.897946,1094.860435 942.457585,1111.722659 940.876366,1114.577309 939.261748,1117.542600 935.496784,1115.695497 934.338210,1114.246320 932.956684,1111.458469 931.529880,1103.526019 905.768256,1110.433378"/>
    <poly id="1122082553" type="building" color="255,230,230" fill="1" layer="-1.00" shape="1523.323177,395.807319 1530.538645,381.467689 1518.876085,375.672008 1511.660618,390.011637 1523.323177,395.807319"/>
    <poly id="1122082554" type="building" color="255,230,230" fill="1" layer="-1.00" shape="1506.944732,436.026312 1517.734468,414.129647 1506.116484,408.477786 1495.326749,430.374449 1506.944732,436.026312"/>
    <poly id="1122082555" type="building" color="255,230,230" fill="1" layer="-1.00" shape="1921.626471,472.907645 1928.742141,461.455630 1909.382134,449.575992 1902.255327,461.028008 1921.626471,472.907645"/>
    <poly id="1122082556" type="building" color="255,230,230" fill="1" layer="-1.00" shape="1897.320377,456.182808 1904.335806,444.764000 1884.808731,432.906518 1877.782167,444.336390 1897.320377,456.182808"/>
    <poly id="1122082557" type="building" color="255,230,230" fill="1" layer="-1.00" shape="1906.952711,440.769606 1913.968139,429.350797 1894.441062,417.504380 1887.414498,428.923190 1906.952711,440.769606"/>
    <poly id="1122082558" type="building" color="255,230,230" fill="1" layer="-1.00" shape="1941.162131,390.988813 1948.188694,379.569996 1928.661609,367.723584 1921.635049,379.153462 1941.162131,390.988813"/>
    <poly id="1122082559" type="building" color="255,230,230" fill="1" layer="-1.00" shape="2003.259805,480.408030 2008.794214,471.467712 1989.222558,459.510651 1983.688149,468.439905 2003.259805,480.408030"/>
    <poly id="1122082560" type="building" color="255,230,230" fill="1" layer="-1.00" shape="2012.502418,465.747211 2017.736119,456.983955 1998.253638,445.513687 1993.031078,454.288005 2012.502418,465.747211"/>
    <poly id="1122082561" type="building" color="255,230,230" fill="1" layer="-1.00" shape="1987.082538,449.398695 1993.006831,440.790232 1974.448664,428.202395 1968.524373,436.821921 1987.082538,449.398695"/>
    <poly id="1122082562" type="building" color="255,230,230" fill="1" layer="-1.00" shape="1977.316451,464.203418 1982.917689,455.274155 1963.513106,443.294946 1957.923006,452.213144 1977.316451,464.203418"/>
    <poly id="1122082563" type="building" color="255,230,230" fill="1" layer="-1.00" shape="1996.915590,435.534379 2002.873148,425.896981 1983.724782,414.205395 1977.756088,423.842794 1996.915590,435.534379"/>
    <poly id="1122082564" type="building" color="255,230,230" fill="1" layer="-1.00" shape="2030.575980,439.534541 2036.155013,431.092081 2025.960301,409.154147 2019.890360,411.943101 2016.415993,417.198892 2019.234240,419.035063 2013.187509,428.207798 2030.575980,439.534541"/>
    <poly id="115753688" type="building" color="255,230,230" fill="1" layer="-1.00" shape="1655.584599,2107.633940 1598.346744,2119.026196 1602.214326,2138.519953 1659.686107,2127.271502 1655.584599,2107.633940"/>
    <poly id="115753689" type="building" color="255,230,230" fill="1" layer="-1.00" shape="1715.200461,2137.498002 1664.043948,2148.081785 1659.686107,2127.271502 1655.584599,2107.633940 1689.800316,2100.570685 1691.583585,2109.133771 1693.154032,2108.801648 1694.458044,2115.041416 1700.539355,2113.790398 1701.899088,2120.251433 1711.176985,2118.336162 1715.200461,2137.498002"/>
    <poly id="1158302792" type="forest" color="140,196,107" fill="1" layer="-4.00" shape="2246.084448,476.035620 2327.044629,449.017124 2389.786435,448.111787 2429.518954,463.539957 2459.093319,478.670897 2481.204687,491.424216 2480.616176,503.893192 2503.016840,514.577546 2504.808762,505.372211 2517.361446,504.186554 2550.521795,515.455723 2576.218453,519.611963 2592.947702,516.345704 2603.405310,507.736544 2616.247079,502.988300 2625.803784,503.274565 2633.577453,497.343233 2636.863296,497.641476 2655.383174,476.274571 2652.096767,472.115061 2655.972072,466.471956 2642.827877,459.658576 2633.116838,470.336564 2614.752726,490.519617 2609.395404,491.892310 2585.771953,497.947656 2558.885271,505.961768 2541.264226,504.183067 2513.473099,496.763318 2496.441091,486.089246 2480.311544,477.185251 2393.371314,436.837269 2367.673776,426.452138 2334.513682,416.665548 2304.339219,410.739781 2292.978394,412.223990 2277.451987,414.604974 2261.012502,418.756295 2253.250168,425.882499 2248.773666,433.295881 2244.286505,443.984139 2243.396397,450.511894 2243.999727,463.268333 2246.084448,476.035620"/>
    <poly id="1158516083" type="building" color="255,230,230" fill="1" layer="-1.00" shape="2594.890675,473.672354 2604.916322,481.725334 2627.000206,458.687276 2618.934946,450.965924 2594.890675,473.672354"/>
    <poly id="1158521813" type="leisure" color="207,245,201" fill="1" layer="-2.00" shape="2351.119404,330.830322 2359.473300,332.090364 2356.033324,344.017624 2362.727531,344.702595 2367.193982,344.701939 2371.827281,343.163393 2377.485128,340.440871 2386.918250,333.613132 2379.543054,322.373415 2383.663717,318.965164 2390.537320,327.682413 2391.729337,329.186912 2395.895969,335.404145 2385.170780,342.055054 2373.855264,348.717112 2367.194789,350.200637 2360.289055,350.201651 2352.725958,348.808726 2347.758017,346.983932 2351.119404,330.830322"/>
    <poly id="1158522114" type="farm" color="242,242,204" fill="1" layer="-3.00" shape="2289.453900,303.633565 2297.521220,325.450141 2303.358854,333.459456 2310.399397,341.302638 2321.549938,348.968197 2331.329697,351.356537 2341.967178,354.242621 2347.758017,346.983932 2351.119404,330.830322 2357.588928,318.471129 2378.938908,304.162520 2369.068654,292.369983 2363.921665,284.880563 2357.572066,279.593012 2351.401184,277.724142 2345.731522,275.844135 2342.467555,272.779950 2339.727287,271.076532 2288.427773,294.085679 2290.823230,299.030833 2289.453900,303.633565"/>
    <poly id="1219536854" type="building" color="255,230,230" fill="1" layer="-1.00" shape="856.133253,541.203786 851.052402,528.448117 866.578274,523.400837 874.053832,536.156160 856.133253,541.203786"/>
    <poly id="1259438524" type="building" color="255,230,230" fill="1" layer="-1.00" shape="872.990360,576.195720 867.018479,563.584005 876.429544,558.836331 882.702113,571.149284 872.990360,576.195720"/>
    <poly id="1259438628" type="building" color="255,230,230" fill="1" layer="-1.00" shape="2436.033259,1709.199510 2434.450418,1700.448274 2439.707563,1699.507129 2438.659771,1693.743041 2434.872844,1694.418453 2433.579817,1687.260362 2440.429700,1686.042403 2442.558737,1697.836106 2446.679804,1697.094265 2448.463290,1706.973981 2436.033259,1709.199510"/>
    <poly id="126310809" type="leisure" color="207,245,201" fill="1" layer="-2.00" shape="2853.070353,1845.857729 2835.975698,1784.057591 2837.645115,1774.343332 2839.471225,1770.149895 2843.413625,1766.022550 2849.405653,1763.167263 2855.475942,1762.447282 2860.131938,1763.718981 2864.253420,1765.909051 2871.895531,1774.781185 2889.290657,1834.589808 2888.200555,1845.222288 2884.291699,1850.323243 2879.569561,1854.085587 2871.617088,1856.233055 2866.281723,1855.459317 2859.175128,1852.959865 2853.070353,1845.857729"/>
    <poly id="126310809#1" type="sport" color="79,230,125" fill="1" layer="-2.00" shape="2853.070353,1845.857729 2835.975698,1784.057591 2837.645115,1774.343332 2839.471225,1770.149895 2843.413625,1766.022550 2849.405653,1763.167263 2855.475942,1762.447282 2860.131938,1763.718981 2864.253420,1765.909051 2871.895531,1774.781185 2889.290657,1834.589808 2888.200555,1845.222288 2884.291699,1850.323243 2879.569561,1854.085587 2871.617088,1856.233055 2866.281723,1855.459317 2859.175128,1852.959865 2853.070353,1845.857729"/>
    <poly id="126310810" type="leisure" color="207,245,201" fill="1" layer="-2.00" shape="2858.994579,1835.877356 2845.187840,1789.499725 2865.592433,1783.500338 2879.410314,1829.877973 2858.994579,1835.877356"/>
    <poly id="126310810#1" type="sport" color="79,230,125" fill="1" layer="-2.00" shape="2858.994579,1835.877356 2845.187840,1789.499725 2865.592433,1783.500338 2879.410314,1829.877973 2858.994579,1835.877356"/>
    <poly id="134938075" type="building" color="255,230,230" fill="1" layer="-1.00" shape="1537.187443,1959.019878 1525.552630,1910.993865 1505.081237,1915.886802 1516.727185,1963.912808 1537.187443,1959.019878"/>
    <poly id="134938077" type="building" color="255,230,230" fill="1" layer="-1.00" shape="1539.147969,1878.320867 1545.173556,1876.903892 1544.649761,1874.702284 1550.886967,1873.229962 1551.377329,1875.287747 1556.411647,1874.103245 1548.153523,1839.563443 1530.834139,1843.659375 1532.271789,1849.677841 1533.797676,1849.312531 1539.280800,1872.235805 1537.777188,1872.590048 1539.147969,1878.320867"/>
    <poly id="135240267" type="parking" color="184,184,179" fill="1" layer="-1.00" shape="1806.848037,2153.151957 1833.712762,2147.693932 1819.156704,2076.965409 1908.193456,2058.886327 1906.120354,2048.597324 1789.606128,2070.983906 1801.921700,2129.066863 1806.848037,2153.151957"/>
    <poly id="135240268" type="parking" color="184,184,179" fill="1" layer="-1.00" shape="1849.918496,1979.213125 1837.925006,1914.779531 1888.691938,1905.811007 1899.861113,1969.558782 1849.918496,1979.213125"/>
    <poly id="135240270" type="building" color="255,230,230" fill="1" layer="-1.00" shape="1310.193477,2063.204236 1306.047133,2041.420371 1253.487263,2051.296261 1257.633604,2073.080118 1310.193477,2063.204236"/>
    <poly id="135240271" type="building" color="255,230,230" fill="1" layer="-1.00" shape="1627.108988,1814.283150 1656.357200,1808.492834 1652.088179,1785.945545 1622.572646,1791.691647 1627.108988,1814.283150"/>
    <poly id="135240272" type="building" color="255,230,230" fill="1" layer="-1.00" shape="1613.898592,1729.448331 1608.737982,1703.106317 1631.537338,1698.699829 1632.395579,1703.058818 1636.249306,1702.317020 1640.540538,1724.300052 1613.898592,1729.448331"/>
    <poly id="135240273" type="building" color="255,230,230" fill="1" layer="-1.00" shape="1761.861878,2162.241313 1756.924406,2138.156228 1801.921700,2129.066863 1806.848037,2153.151957 1761.861878,2162.241313"/>
    <poly id="135240276" type="parking" color="184,184,179" fill="1" layer="-1.00" shape="1580.767568,1767.534190 1587.120627,1798.799394 1622.572646,1791.691647 1652.088179,1785.945545 1645.924469,1754.724556 1599.635211,1763.747819 1580.767568,1767.534190"/>
    <poly id="135240278" type="building" color="255,230,230" fill="1" layer="-1.00" shape="1627.091270,1847.750915 1621.729897,1819.240431 1596.825442,1823.857397 1602.186814,1852.378940 1627.091270,1847.750915"/>
    <poly id="135240279" type="building" color="255,230,230" fill="1" layer="-1.00" shape="1629.853415,1846.743740 1644.076594,1844.208211 1666.174381,1840.753320 1662.072119,1815.860496 1625.617520,1822.027960 1629.853415,1846.743740"/>
    <poly id="135240282" type="building" color="255,230,230" fill="1" layer="-1.00" shape="2217.700213,1625.631678 2209.752034,1577.925808 2183.366328,1584.202611 2200.258060,1628.444281 2217.700213,1625.631678"/>
    <poly id="135240284" type="building" color="255,230,230" fill="1" layer="-1.00" shape="2284.108160,1636.675227 2289.145664,1658.448039 2299.916044,1655.979333 2294.878538,1634.206520 2284.108160,1636.675227"/>
    <poly id="135240285" type="building" color="255,230,230" fill="1" layer="-1.00" shape="1516.115680,1972.033657 1521.531954,1994.945878 1541.802887,1990.218934 1536.386613,1967.317774 1516.115680,1972.033657"/>
    <poly id="135240287" type="building" color="255,230,230" fill="1" layer="-1.00" shape="1296.733824,1945.787022 1291.194168,1916.480038 1324.307224,1910.302007 1326.960020,1924.341483 1335.547363,1922.736083 1350.238315,1920.167315 1352.200138,1931.219687 1354.238641,1932.779393 1349.283004,1939.185947 1344.526498,1935.568761 1331.227816,1938.093084 1330.036227,1939.564718 1296.733824,1945.787022"/>
    <poly id="135572239" type="building" color="255,230,230" fill="1" layer="-1.00" shape="1508.618168,1715.544591 1517.439436,1714.049782 1516.458490,1708.341039 1530.080222,1706.037920 1526.111850,1682.959554 1512.757431,1685.229447 1511.876807,1680.096005 1502.910748,1681.624028 1504.872647,1693.085766 1497.922559,1694.270536 1499.672650,1704.415721 1506.511361,1703.264158 1508.618168,1715.544591"/>
    <poly id="135572241" type="building" color="255,230,230" fill="1" layer="-1.00" shape="1608.737982,1703.106317 1631.537338,1698.699829 1635.402206,1697.980157 1626.975324,1651.524740 1599.988099,1656.673080 1608.737982,1703.106317"/>
    <poly id="135572243" type="building" color="255,230,230" fill="1" layer="-1.00" shape="1485.408191,1649.497409 1493.917617,1648.223912 1491.163989,1630.135121 1496.432260,1629.348873 1496.855900,1632.170061 1505.231671,1630.918709 1504.194885,1624.147859 1511.011337,1623.129060 1512.003543,1629.700769 1519.053891,1628.637683 1518.518773,1625.119495 1525.713917,1624.045325 1526.204443,1627.275862 1532.586515,1626.323505 1528.127179,1596.938890 1478.551978,1604.369471 1485.408191,1649.497409"/>
    <poly id="135572246" type="building" color="255,230,230" fill="1" layer="-1.00" shape="1552.006500,1589.445463 1560.355050,1633.157061 1585.003321,1628.606482 1576.810699,1584.872727 1552.006500,1589.445463"/>
    <poly id="135572249" type="building" color="255,230,230" fill="1" layer="-1.00" shape="1577.617114,1536.524163 1550.317965,1541.174698 1544.226275,1547.824833 1552.006500,1589.445463 1576.810699,1584.872727 1585.765619,1583.311508 1582.744731,1565.709547 1577.617114,1536.524163"/>
    <poly id="135573226" type="amenity" color="237,199,199" fill="1" layer="-1.00" shape="1740.699793,1755.187333 1736.810102,1737.319939 1756.011864,1733.190537 1759.901557,1751.057934 1740.699793,1755.187333"/>
    <poly id="135573226#1" type="building" color="255,230,230" fill="1" layer="-1.00" shape="1740.699793,1755.187333 1736.810102,1737.319939 1756.011864,1733.190537 1759.901557,1751.057934 1740.699793,1755.187333"/>
    <poly id="136541071" type="building" color="255,230,230" fill="1" layer="-1.00" shape="2187.200215,1044.179663 2199.093161,1024.971275 2213.051042,1036.409228 2195.276525,1051.668687 2187.200215,1044.179663"/>
    <poly id="136541074" type="building" color="255,230,230" fill="1" layer="-1.00" shape="2648.359162,505.428714 2662.591411,488.277743 2670.979717,496.231392 2657.293323,513.935474 2648.359162,505.428714"/>
    <poly id="136541083" type="building" color="255,230,230" fill="1" layer="-1.00" shape="2282.448448,1157.027692 2279.549852,1138.319261 2299.921328,1135.218524 2302.808788,1153.938023 2282.448448,1157.027692"/>
    <poly id="136541088" type="building" color="255,230,230" fill="1" layer="-1.00" shape="2535.856529,695.554282 2533.613058,663.248331 2556.925282,661.651770 2559.168754,693.957725 2535.856529,695.554282"/>
    <poly id="136541090" type="building" color="255,230,230" fill="1" layer="-1.00" shape="2575.157417,652.952986 2596.598498,651.943074 2595.827630,635.900679 2574.386551,636.921657 2575.157417,652.952986"/>
    <poly id="136541092" type="building" color="255,230,230" fill="1" layer="-1.00" shape="2225.178876,1181.475644 2251.921132,1176.194454 2248.398960,1158.647810 2221.656707,1163.940067 2225.178876,1181.475644"/>
    <poly id="136541098" type="building" color="255,230,230" fill="1" layer="-1.00" shape="2222.542354,1204.532910 2257.482167,1197.712705 2254.528414,1182.754902 2219.588604,1189.575111 2222.542354,1204.532910"/>
    <poly id="136541098#1" type="tourism" color="207,245,201" fill="1" layer="-2.00" shape="2222.542354,1204.532910 2257.482167,1197.712705 2254.528414,1182.754902 2219.588604,1189.575111 2222.542354,1204.532910"/>
    <poly id="136541100" type="building" color="255,230,230" fill="1" layer="-1.00" shape="2592.856436,578.004259 2609.452312,576.685254 2610.858271,594.110532 2594.262394,595.429536 2592.856436,578.004259"/>
    <poly id="136541102" type="building" color="255,230,230" fill="1" layer="-1.00" shape="2581.168191,626.000707 2578.648042,606.064112 2594.586660,604.070314 2597.106810,624.006912 2581.168191,626.000707"/>
    <poly id="136541103" type="building" color="255,230,230" fill="1" layer="-1.00" shape="2573.229240,721.316459 2570.026257,677.791950 2594.029042,676.051461 2597.220888,719.575978 2573.229240,721.316459"/>
    <poly id="136541105" type="building" color="255,230,230" fill="1" layer="-1.00" shape="2112.326372,1184.711110 2109.461762,1169.985649 2118.071409,1168.335934 2120.947158,1183.061394 2112.326372,1184.711110"/>
    <poly id="136541106" type="building" color="255,230,230" fill="1" layer="-1.00" shape="2328.290340,589.748185 2312.901956,545.572762 2349.077543,534.946272 2360.812212,576.610757 2328.290340,589.748185"/>
    <poly id="136541107" type="building" color="255,230,230" fill="1" layer="-1.00" shape="2269.046201,1374.299944 2284.940068,1371.011783 2276.068080,1328.716219 2236.004855,1337.019656 2239.816683,1355.152642 2263.986046,1350.148437 2269.046201,1374.299944"/>
    <poly id="137332641" type="building" color="255,230,230" fill="1" layer="-1.00" shape="1559.149200,1370.736904 1566.086722,1359.318180 1577.491993,1357.369375 1582.429317,1379.529317 1578.910056,1382.539139 1559.149200,1370.736904"/>
    <poly id="137735131" type="building" color="255,230,230" fill="1" layer="-1.00" shape="2293.944085,1562.004458 2315.952782,1558.018453 2313.244133,1543.248687 2291.235436,1547.223631 2292.740128,1554.614024 2293.944085,1562.004458"/>
    <poly id="137735133" type="building" color="255,230,230" fill="1" layer="-1.00" shape="2445.881595,1402.631715 2466.364521,1399.785462 2463.209257,1377.403861 2442.726334,1380.261181 2445.881595,1402.631715"/>
    <poly id="137735134" type="building" color="255,230,230" fill="1" layer="-1.00" shape="2283.735399,1518.558433 2308.105468,1515.003581 2305.429778,1496.981063 2281.070849,1500.535916 2283.735399,1518.558433"/>
    <poly id="137739369" type="building" color="255,230,230" fill="1" layer="-1.00" shape="1406.680078,599.960802 1402.323985,592.681514 1414.207680,587.336024 1426.503626,582.930889 1437.051326,581.645972 1438.645336,590.253306 1427.863794,591.958677 1424.756346,592.733587 1416.336164,594.836909 1406.680078,599.960802"/>
    <poly id="177147638" type="building" color="255,230,230" fill="1" layer="-1.00" shape="1421.311486,1676.745063 1407.747359,1611.836159 1445.137287,1604.119607 1458.712561,1669.028525 1421.311486,1676.745063"/>
    <poly id="177147639" type="parking" color="184,184,179" fill="1" layer="-1.00" shape="1446.607491,1603.820685 1458.591360,1597.623357 1485.385235,1725.759580 1427.756872,1731.465277 1418.972657,1678.172602 1461.330135,1669.703052 1446.607491,1603.820685"/>
    <poly id="177148027" type="building" color="255,230,230" fill="1" layer="-1.00" shape="1406.638651,1811.845991 1398.870257,1774.761508 1420.678274,1770.299857 1428.446712,1807.694129 1406.638651,1811.845991"/>
    <poly id="200341539" type="building" color="255,230,230" fill="1" layer="-1.00" shape="1493.096362,1914.804183 1499.961411,1943.613162 1478.420773,1948.672194 1471.566865,1919.863218 1493.096362,1914.804183"/>
    <poly id="221561984" type="building" color="255,230,230" fill="1" layer="-1.00" shape="1538.728631,328.581927 1529.074379,346.207842 1528.016576,348.442867 1528.083742,350.744110 1530.133504,353.000808 1532.873728,354.516136 1551.609494,363.286921 1553.491951,363.961532 1555.340892,363.939134 1557.267662,362.965245 1558.225371,361.748096 1566.431811,345.173444 1566.877137,343.790414 1566.988291,342.230414 1566.264060,340.548835 1564.370161,337.805310 1561.495958,334.099385 1543.629064,325.970172 1540.788859,326.247181 1538.728631,328.581927"/>
    <poly id="230624908" type="building" color="255,230,230" fill="1" layer="-1.00" shape="2217.902602,847.151717 2242.991852,810.350020 2259.723927,826.965402 2225.076926,856.057022 2217.902602,847.151717"/>
    <poly id="230624938" type="building" color="255,230,230" fill="1" layer="-1.00" shape="2332.343370,1124.636969 2330.169551,1111.537765 2351.543424,1108.049648 2353.706105,1121.148856 2332.343370,1124.636969"/>
    <poly id="230624943" type="amenity" color="237,199,199" fill="1" layer="-1.00" shape="2475.557836,1112.988662 2481.329390,1126.529922 2469.901507,1126.575794 2468.240493,1116.629684 2475.557836,1112.988662"/>
    <poly id="230624943#1" type="building" color="255,230,230" fill="1" layer="-1.00" shape="2475.557836,1112.988662 2481.329390,1126.529922 2469.901507,1126.575794 2468.240493,1116.629684 2475.557836,1112.988662"/>
    <poly id="240654363" type="tourism" color="207,245,201" fill="1" layer="-2.00" shape="2187.610662,338.433029 2195.006691,339.925551 2202.102148,342.513431 2206.747182,345.068479 2208.707674,346.141377 2214.678459,350.720900 2218.243176,353.928870 2224.203381,362.314332 2227.412086,368.332551 2229.796829,376.198542 2230.934020,383.611101 2230.923980,391.112338 2229.766686,398.525233 2227.495527,405.683824 2224.155029,412.400021 2220.001322,418.330809 2215.023286,423.597891 2209.310009,428.079553 2203.017414,431.687261 2196.245733,434.332491 2189.162034,435.970964 2181.922247,436.569466 2174.660029,436.105849 2167.553592,434.580088 2161.772763,434.105192 2154.376144,428.563327 2148.594742,424.171859 2143.514938,419.005824 2143.358852,417.976917 2139.259263,413.142653 2135.905708,406.737225 2133.543396,399.900166 2132.205766,392.808490 2131.725966,386.977958 2132.704877,378.403399 2134.541666,371.410832 2138.806487,363.676637 2141.345234,358.376723 2146.234092,352.656040 2151.936163,347.742892 2158.328941,343.747935 2165.256503,340.759702 2172.562926,338.855661 2180.070002,338.069032 2187.610662,338.433029"/>
    <poly id="243972321" type="building" color="255,230,230" fill="1" layer="-1.00" shape="1376.930567,374.564264 1373.542787,362.483194 1395.395060,356.428151 1398.793980,368.509221 1376.930567,374.564264"/>
    <poly id="243972321#1" type="tourism" color="207,245,201" fill="1" layer="-2.00" shape="1376.930567,374.564264 1373.542787,362.483194 1395.395060,356.428151 1398.793980,368.509221 1376.930567,374.564264"/>
    <poly id="24406408" type="parking" color="184,184,179" fill="1" layer="-1.00" shape="1805.510157,548.600529 1870.633473,534.949479 1882.891466,575.750780 1815.529310,589.103417 1808.285206,559.807692 1805.510157,548.600529"/>
    <poly id="24406409" type="parking" color="184,184,179" fill="1" layer="-1.00" shape="1945.533866,736.077522 1963.602906,755.502864 1960.284146,758.556936 1955.640107,762.817147 1965.877742,773.813041 1950.364204,788.065378 1922.046401,757.655208 1942.114875,739.220119 1945.533866,736.077522"/>
    <poly id="24611185" type="building" color="255,230,230" fill="1" layer="-1.00" shape="2742.985713,1975.684443 2717.044850,1977.756897 2696.717048,1975.004768 2672.500639,1962.395320 2657.417565,1949.165061 2651.858438,1941.000731 2641.219224,1925.369027 2633.208260,1906.871443 2627.995820,1908.996402 2624.664061,1898.685395 2619.373417,1899.073348 2610.167099,1854.531750 2615.646935,1852.982070 2613.684998,1841.310030 2620.200862,1840.966162 2624.150329,1807.088268 2632.166554,1782.569790 2648.469604,1757.508046 2672.826783,1740.687722 2692.997216,1733.028798 2719.818238,1732.726390 2742.908960,1739.925755 2762.758885,1750.411520 2776.683772,1764.881073 2786.710280,1779.594567 2797.695489,1800.193879 2807.668897,1833.859698 2812.206884,1868.167964 2810.528818,1896.170706 2804.618198,1924.284662 2792.212684,1943.238662 2779.672738,1956.516941 2761.897626,1968.656356 2742.985713,1975.684443"/>